<routes>
	<vType accel="1.0" decel="2.0" id="car1" length="2.0" maxSpeed="10.0" sigma="1" color="1,.3,.3"/>
	<vType accel="1.0" decel="2.0" id="car2" length="2.0" maxSpeed="100.0" sigma="1" color="1,1,1"/>
	<vType accel="1.0" decel="2.0" id="car3" length="2.0" maxSpeed="30.0" sigma="1" color=".3,.3,1"/>  

	
	<route id="route0" edges="highway cont"/>
	<route id="route1" edges="ramp cont"/>

	<vehicle depart="10" departLane="0" id="1" route="route0" type="car1" />
	<vehicle depart="20" departLane="0" id="2" route="route0" type="car2" />
	<vehicle depart="40" departLane="0" id="3" route="route0" type="car3" /> 
</routes>