<routes>
	<vType accel="1.0" decel="2.0" id="car1" length="2.0" maxSpeed="10.0" sigma="1" color="1,.3,.3"/>
	<vType accel="1.0" decel="2.0" id="car2" length="2.0" maxSpeed="100.0" sigma="1" color="1,1,1"/>
	<vType accel="1.0" decel="2.0" id="car3" length="2.0" maxSpeed="30.0" sigma="1" color=".3,.3,1"/>  

	<route id="route0" edges="highway cont"/>
	<route id="route1" edges="ramp cont"/>

	<flow id="flow0" begin="0" end= "700" period="10" type="car1" route="route0" />
	<flow id="flow1" begin="10" end= "700" period="10" type="car2" route="route1" />
	
</routes>